Spectre (R) Circuit Simulator
Version 18.1.0.556.isr13 64bit -- 10 Dec 2019
Simulating `input.scs' on finagle.wot.ece.northwestern.edu at 10:38:44 PM, Sat Mar 7, 2026 (process id: 3879543).
H = mpsImport( "spectre" "ipi" "v0.0" ?session "spectre0_3359781_2" )
H->sclSetResultDir( "../psf" )
H->sclRun( "all" )
sclCkt0xb00d630 = H->sclGetCircuit(  "" )
H->sclQuit(  )
