
Spectre (R) Circuit Simulator
Version 18.1.0.556.isr13 64bit -- 10 Dec 2019
Copyright (C) 1989-2019 Cadence Design Systems, Inc. All rights reserved worldwide. Cadence and Spectre are registered trademarks of Cadence Design Systems, Inc. All others are the property of their respective holders.

Includes RSA BSAFE(R) Cryptographic or Security Protocol Software from RSA Security, Inc.

User: gel8580   Host: finagle.wot.ece.northwestern.edu   HostID: 6981D305   PID: 4147569
Memory  available: 14.9669 GB  physical: 66.6776 GB
Linux   : Red Hat Enterprise Linux release 8.10 (Ootpa)
CPU Type: Intel(R) Xeon(R) Gold 5317 CPU @ 3.00GHz
        Socket: Processors [Frequency] (Hyperthreaded Processor)
        0:       0 [3600.0] ( 24 ),  2 [3600.0] ( 26 ),  4 [3600.0] ( 28 )
                 6 [3600.0] ( 30 ),  8 [3600.0] ( 32 ), 10 [3600.0] ( 34 )
                12 [3600.0] ( 36 ), 14 [3600.0] ( 38 ), 16 [3600.0] ( 40 )
                18 [3600.0] ( 42 ), 20 [3400.0] ( 44 ), 22 [3600.0] ( 46 )
        1:       1 [3600.0] ( 25 ),  3 [3600.0] ( 27 ),  5 [3600.0] ( 29 )
                 7 [3600.0] ( 31 ),  9 [3600.0] ( 33 ), 11 [3600.0] ( 35 )
                13 [3600.0] ( 37 ), 15 [2858.0] ( 39 ), 17 [3600.0] ( 41 )
                19 [3600.0] ( 43 ), 21 [3600.0] ( 45 ), 23 [3600.0] ( 47 )
        
System load averages (1min, 5min, 15min) : 1.0 %, 0.7 %, 0.5 %
Hyperthreading is enabled


Simulating `input.scs' on finagle.wot.ece.northwestern.edu at 10:03:48 AM, Thur Mar 19, 2026 (process id: 4147569).
Current working directory: /home/gel8580/CE391/Lab3/simulation/Sim_whole_sram_4x4/spectre/config/netlist
Command line:
    /vol/cadence2018/SPECTRE181/tools/bin/spectre -64 input.scs  \
        +escchars +log ../psf/spectre.out +inter=mpsc  \
        +mpssession=spectre1_4101828_3 -format psfxl -raw ../psf  \
        +lqtimeout 900 -maxw 5 -maxn 5
spectre pid = 4147569

Loading /vol/cadence2018/SPECTRE181/tools.lnx86/cmi/lib/64bit/5.0/libinfineon_sh.so ...
Loading /vol/cadence2018/SPECTRE181/tools.lnx86/cmi/lib/64bit/5.0/libphilips_o_sh.so ...
Loading /vol/cadence2018/SPECTRE181/tools.lnx86/cmi/lib/64bit/5.0/libphilips_sh.so ...
Loading /vol/cadence2018/SPECTRE181/tools.lnx86/cmi/lib/64bit/5.0/libsparam_sh.so ...
Loading /vol/cadence2018/SPECTRE181/tools.lnx86/cmi/lib/64bit/5.0/libstmodels_sh.so ...
Reading file:  /home/gel8580/CE391/Lab3/simulation/Sim_whole_sram_4x4/spectre/config/netlist/input.scs
Reading file:  /vol/cadence2018/SPECTRE181/tools.lnx86/spectre/etc/configs/spectre.cfg
Reading file:  /vol/eecs391/FreePDK45/ncsu_basekit/models/hspice/hspice_nom.include
Reading file:  /vol/eecs391/FreePDK45/ncsu_basekit/models/hspice/tran_models/models_nom/NMOS_VTG.inc
Reading file:  /vol/eecs391/FreePDK45/ncsu_basekit/models/hspice/tran_models/models_nom/PMOS_VTG.inc
Reading file:  /vol/eecs391/FreePDK45/ncsu_basekit/models/hspice/tran_models/models_nom/NMOS_VTL.inc
Reading file:  /vol/eecs391/FreePDK45/ncsu_basekit/models/hspice/tran_models/models_nom/PMOS_VTL.inc
Reading file:  /vol/eecs391/FreePDK45/ncsu_basekit/models/hspice/tran_models/models_nom/NMOS_VTH.inc
Reading file:  /vol/eecs391/FreePDK45/ncsu_basekit/models/hspice/tran_models/models_nom/PMOS_VTH.inc
Reading file:  /vol/eecs391/FreePDK45/ncsu_basekit/models/hspice/tran_models/models_nom/NMOS_THKOX.inc
Reading file:  /vol/eecs391/FreePDK45/ncsu_basekit/models/hspice/tran_models/models_nom/PMOS_THKOX.inc
Time for NDB Parsing: CPU = 83.747 ms, elapsed = 170.909 ms.
Time accumulated: CPU = 113.546 ms, elapsed = 170.912 ms.
Peak resident memory used = 104 Mbytes.


Warning from spectre in `inverter':`I55', during hierarchy flattening.
    WARNING (SFE-102): "input.scs" 17: Parameter `ld', specified for model `NMOS_VTG' of primitive `bsim4', has been ignored because it is an invalid model parameter. Specify a valid model parameter and rerun the simulation. Type `spectre -h bsim4' to get more information on valid model parameters.
    WARNING (SFE-32): "/vol/eecs391/FreePDK45/ncsu_basekit/models/hspice/tran_models/models_nom/PMOS_VTG.inc" 3: Duplicate specification for parameter `toxref' (using last value specified).
    WARNING (SFE-102): "input.scs" 19: Parameter `ld', specified for model `PMOS_VTG' of primitive `bsim4', has been ignored because it is an invalid model parameter. Specify a valid model parameter and rerun the simulation. Type `spectre -h bsim4' to get more information on valid model parameters.
Warning from spectre in `inverter':`I54', during hierarchy flattening.
    WARNING (SFE-102): "input.scs" 17: Parameter `ld', specified for model `NMOS_VTG' of primitive `bsim4', has been ignored because it is an invalid model parameter. Specify a valid model parameter and rerun the simulation. Type `spectre -h bsim4' to get more information on valid model parameters.
    WARNING (SFE-102): "input.scs" 19: Parameter `ld', specified for model `PMOS_VTG' of primitive `bsim4', has been ignored because it is an invalid model parameter. Specify a valid model parameter and rerun the simulation. Type `spectre -h bsim4' to get more information on valid model parameters.
Warning from spectre in `inverter':`I38', during hierarchy flattening.
    WARNING (SFE-102): "input.scs" 17: Parameter `ld', specified for model `NMOS_VTG' of primitive `bsim4', has been ignored because it is an invalid model parameter. Specify a valid model parameter and rerun the simulation. Type `spectre -h bsim4' to get more information on valid model parameters.
        Further occurrences of this warning will be suppressed.

Time for Elaboration: CPU = 44.197 ms, elapsed = 45.275 ms.
Time accumulated: CPU = 157.889 ms, elapsed = 216.331 ms.
Peak resident memory used = 116 Mbytes.


Warning from spectre during hierarchy flattening.
    WARNING (SPECTRE-17101): The value 'psf' specified using the 'checklimitdest' option will no longer be supported in future releases.
Notice from spectre in `sram_4x4_arr':`I50', during hierarchy flattening.
    I50.rWL0_175: Terminals are connected together (to node `WL0').


Time for EDB Visiting: CPU = 40.057 ms, elapsed = 40.426 ms.
Time accumulated: CPU = 198.072 ms, elapsed = 256.885 ms.
Peak resident memory used = 125 Mbytes.


Notice from spectre during topology check.
    Only one connection to node `clk'.
    No DC path from node `I50._net0' to ground, Gmin installed to provide path.


Global user options:
         psfversion = 1.1.0
            vabstol = 1e-06
            iabstol = 1e-12
               temp = 27
               gmin = 1e-12
             rforce = 1
           maxnotes = 5
           maxwarns = 5
             digits = 5
               cols = 80
             pivrel = 0.001
           sensfile = ../psf/sens.output
     checklimitdest = psf
               save = allpub
             reltol = 0.001
               tnom = 27
             scalem = 1
              scale = 1

Scoped user options:

Circuit inventory:
              nodes 2392
             iprobe 1     
              bsim4 230   
          capacitor 5586  
           resistor 2305  
            vsource 14    

Analysis and control statement inventory:
               info 7     
               tran 1     

Output statements:
             .probe 0     
           .measure 0     
               save 1     


Notice from spectre.
    225 warnings suppressed.

Time for parsing: CPU = 18.376 ms, elapsed = 20.04 ms.
Time accumulated: CPU = 216.557 ms, elapsed = 277.22 ms.
Peak resident memory used = 130 Mbytes.

~~~~~~~~~~~~~~~~~~~~~~
Pre-Simulation Summary
~~~~~~~~~~~~~~~~~~~~~~
~~~~~~~~~~~~~~~~~~~~~~
Entering remote command mode using MPSC service (spectre, ipi, v0.0, spectre1_4101828_3, ).

***********************************************
Transient Analysis `tran': time = (0 s -> 5 ns)
***********************************************

Notice from spectre during IC analysis, during transient analysis `tran'.
    GminDC = 1 pS is large enough to noticeably affect the DC solution.
        dV(I50.I4_I5_net20) = 106.946 uV
        Use the `gmin_check' option to eliminate or expand this report.

DC simulation time: CPU = 35.219 ms, elapsed = 35.31 ms.

Opening the PSFXL file ../psf/tran.tran.tran ...
Important parameter values:
    start = 0 s
    outputstart = 0 s
    stop = 5 ns
    step = 5 ps
    maxstep = 100 ps
    ic = all
    useprevic = no
    skipdc = no
    reltol = 1e-03
    abstol(V) = 1 uV
    abstol(I) = 1 pA
    temp = 27 C
    tnom = 27 C
    tempeffects = all
    errpreset = moderate
    method = traponly
    lteratio = 3.5
    relref = sigglobal
    cmin = 0 F
    gmin = 1 pS


Output and IC/nodeset summary:
                 save   4       (current)
                 save   2392    (voltage)

    tran: time = 127.7 ps    (2.55 %), step = 3.428 ps    (68.6 m%)
    tran: time = 380 ps       (7.6 %), step = 25.43 ps     (509 m%)
    tran: time = 627.5 ps    (12.6 %), step = 3.61 ps     (72.2 m%)
    tran: time = 875.2 ps    (17.5 %), step = 1.941 ps    (38.8 m%)
    tran: time = 1.128 ns    (22.6 %), step = 7.487 ps     (150 m%)
    tran: time = 1.376 ns    (27.5 %), step = 5.618 ps     (112 m%)
    tran: time = 1.626 ns    (32.5 %), step = 1.412 ps    (28.2 m%)
    tran: time = 1.884 ns    (37.7 %), step = 9.598 ps     (192 m%)
    tran: time = 2.129 ns    (42.6 %), step = 4.166 ps    (83.3 m%)
    tran: time = 2.375 ns    (47.5 %), step = 382.6 fs    (7.65 m%)
    tran: time = 2.629 ns    (52.6 %), step = 6.002 ps     (120 m%)
    tran: time = 2.879 ns    (57.6 %), step = 3.778 ps    (75.6 m%)
    tran: time = 3.13 ns     (62.6 %), step = 5.16 ps      (103 m%)
    tran: time = 3.376 ns    (67.5 %), step = 5.392 ps     (108 m%)
    tran: time = 3.626 ns    (72.5 %), step = 3.011 ps    (60.2 m%)
    tran: time = 3.88 ns     (77.6 %), step = 8.715 ps     (174 m%)
    tran: time = 4.129 ns    (82.6 %), step = 8.498 ps     (170 m%)
    tran: time = 4.375 ns    (87.5 %), step = 155.3 fs    (3.11 m%)
    tran: time = 4.649 ns      (93 %), step = 40.01 ps     (800 m%)
    tran: time = 4.89 ns     (97.8 %), step = 60.24 ps      (1.2 %)
Number of accepted tran steps =             1477

Maximum value achieved for any signal of each quantity: 
V: V(I50.I6_I6_MM8:int_g) = 1.243 V
I: I(V1:p) = 1.688 mA
If your circuit contains signals of the same quantity that are vastly different in size (such as high voltage circuitry combined with low voltage control circuitry), you should consider specifying global option `bin_relref=yes'.

~~~~~~~~~~~~~~~~~~~~~~~~~~~~~~~~~
Post-Transient Simulation Summary
~~~~~~~~~~~~~~~~~~~~~~~~~~~~~~~~~
   -   To further speed up simulation, consider
          add ++aps on command line
~~~~~~~~~~~~~~~~~~~~~~~~~~~~~~~~~


During simulation, the CPU load for active processors is :
        Spectre  0 (1.5 %)       1 (3.6 %)       2 (1.8 %)       3 (2.2 %)
                 4 (2.7 %)       5 (2.0 %)       6 (2.0 %)       7 (1.3 %)
                 8 (4.5 %)       9 (1.7 %)      10 (2.2 %)      11 (1.5 %)
                12 (1.2 %)      13 (2.8 %)      14 (2.0 %)      15 (2.2 %)
                16 (1.2 %)      17 (1.7 %)      18 (6.7 %)      19 (2.0 %)
                20 (1.5 %)      21 (1.7 %)      22 (2.0 %)      23 (2.0 %)
                24 (1.3 %)      25 (1.5 %)      26 (2.2 %)      27 (6.6 %)
                28 (1.3 %)      29 (1.7 %)      31 (1.3 %)      32 (93.9 %)
                33 (2.2 %)      34 (1.2 %)      35 (2.3 %)      36 (3.2 %)
                37 (3.1 %)      38 (3.8 %)      39 (2.3 %)      41 (1.5 %)
                42 (1.5 %)      43 (2.5 %)      44 (1.3 %)      45 (1.5 %)
                46 (1.5 %)      47 (1.5 %)      
        Other   
Initial condition solution time: CPU = 35.266 ms, elapsed = 35.511 ms.
Intrinsic tran analysis time:    CPU = 5.71396 s, elapsed = 5.7427 s.
Total time required for tran analysis `tran': CPU = 5.75764 s, elapsed = 5.78995 s.
Time accumulated: CPU = 6.11842 s, elapsed = 6.35778 s.
Peak resident memory used = 221 Mbytes.

finalTimeOP: writing operating point information to rawfile.

Opening the PSF file ../psf/finalTimeOP.info ...
modelParameter: writing model parameter values to rawfile.

Opening the PSF file ../psf/modelParameter.info ...
element: writing instance parameter values to rawfile.

Opening the PSF file ../psf/element.info ...
outputParameter: writing output parameter values to rawfile.

Opening the PSF file ../psf/outputParameter.info ...
designParamVals: writing netlist parameters to rawfile.

Opening the PSFASCII file ../psf/designParamVals.info ...
primitives: writing primitives to rawfile.

Opening the PSFASCII file ../psf/primitives.info.primitives ...
subckts: writing subcircuits to rawfile.

Opening the PSFASCII file ../psf/subckts.info.subckts ...

Aggregate audit (10:53:25 AM, Thur Mar 19, 2026):
Time used: CPU = 6.29 s, elapsed = 2.98 ks (49m  36.4s), util. = 211e-03%.
Time spent in licensing: elapsed = 13.4 ms.
Peak memory used = 221 Mbytes.
Simulation started at: 10:03:48 AM, Thur Mar 19, 2026, ended at: 10:53:25 AM, Thur Mar 19, 2026, with elapsed time (wall clock): 2.98 ks (49m  36.4s).
spectre completes with 0 errors, 7 warnings, and 6 notices.
